  
       XFOIL         Version 6.99
  
 Calculated polar for: NACA 0012                                       
  
 1 1 Reynolds number fixed          Mach number fixed         
  
 xtrf =   1.000 (top)        1.000 (bottom)  
 Mach =   0.000     Re =     2.000 e 6     Ncrit =   9.000  9.000
  
   alpha    CL        CD       CDp       CM     Top_Xtr  Bot_Xtr  Top_Itr  Bot_Itr
  ------ -------- --------- --------- -------- -------- -------- -------- --------
   0.000   0.0000   0.00516   0.00033  -0.0000   0.5769   0.5769  34.3301 166.6699
   2.000   0.2210   0.00544   0.00047   0.0009   0.3747   0.7696  49.6427 181.1114
   4.000   0.4367   0.00647   0.00098   0.0029   0.1807   0.9170  64.8708 192.2092
   6.000   0.6539   0.00815   0.00182   0.0045   0.0676   0.9859  75.4330 198.1229
   8.000   0.9148   0.01019   0.00300  -0.0045   0.0313   0.9984  81.5763 199.7597
  10.000   1.1049   0.01239   0.00433   0.0013   0.0208   1.0000  84.5947 200.0000
  12.000   1.2867   0.01531   0.00619   0.0076   0.0157   1.0000  86.4965 200.0000
